LTspice 24.0.12 for Windows
Circuit: *** SPICE deck for cell NOTlay{lay} from library Swaroop
Start Time: Sun Feb  9 15:34:23 2025
solver = Normal
Maximum thread count: 12
tnom = 27
temp = 27
method = modified trap
Direct Newton iteration for .op point succeeded.
Total elapsed time: 0.199 seconds.

