LTspice 24.0.12 for Windows
Circuit: *** SPICE deck for cell NORlay{lay} from library NOR
Start Time: Sun Feb  9 15:12:30 2025
solver = Normal
Maximum thread count: 12
tnom = 27
temp = 27
method = modified trap
Direct Newton iteration for .op point succeeded.
Total elapsed time: 0.259 seconds.

