LTspice 24.0.12 for Windows
Circuit: *** SPICE deck for cell NANDlay{lay} from library NAND
Start Time: Sat Feb  1 03:30:26 2025
solver = Normal
Maximum thread count: 12
tnom = 27
temp = 27
method = modified trap
Direct Newton iteration for .op point succeeded.
Total elapsed time: 0.230 seconds.

